
     RDKit          2D

 41 45  0  0  0  0  0  0  0  0999 V2000
    1.5000    0.0000    0.0000 C   0  0  0  0  0  0  0  0  0  0  0  0
    0.7500   -1.2990    0.0000 C   0  0  0  0  0  0  0  0  0  0  0  0
   -0.7500   -1.2990    0.0000 C   0  0  0  0  0  0  0  0  0  0  0  0
   -1.5000    0.0000    0.0000 C   0  0  0  0  0  0  0  0  0  0  0  0
   -0.7500    1.2990    0.0000 C   0  0  0  0  0  0  0  0  0  0  0  0
    0.7500    1.2990    0.0000 C   0  0  0  0  0  0  0  0  0  0  0  0
   -3.0000    0.0000    0.0000 P   0  0  0  0  0  0  0  0  0  0  0  0
   -3.7500    1.2990    0.0000 C   0  0  0  0  0  0  0  0  0  0  0  0
   -3.0000    2.5981    0.0000 C   0  0  0  0  0  0  0  0  0  0  0  0
   -3.7500    3.8971    0.0000 C   0  0  0  0  0  0  0  0  0  0  0  0
   -5.2500    3.8971    0.0000 C   0  0  0  0  0  0  0  0  0  0  0  0
   -6.0000    2.5981    0.0000 C   0  0  0  0  0  0  0  0  0  0  0  0
   -5.2500    1.2990    0.0000 C   0  0  0  0  0  0  0  0  0  0  0  0
   -3.7500   -1.2990    0.0000 C   0  0  0  0  0  0  0  0  0  0  0  0
   -5.2500   -1.2990    0.0000 C   0  0  0  0  0  0  0  0  0  0  0  0
   -6.0000   -2.5981    0.0000 C   0  0  0  0  0  0  0  0  0  0  0  0
   -5.2500   -3.8971    0.0000 C   0  0  0  0  0  0  0  0  0  0  0  0
   -3.7500   -3.8971    0.0000 C   0  0  0  0  0  0  0  0  0  0  0  0
   -3.0000   -2.5981    0.0000 C   0  0  0  0  0  0  0  0  0  0  0  0
    8.6788    0.0000    0.0000 C   0  0  0  0  0  0  0  0  0  0  0  0
    7.1788    0.0000    0.0000 N   0  0  0  0  0  0  0  0  0  0  0  0
    6.2971    1.2135    0.0000 C   0  0  0  0  0  0  0  0  0  0  0  0
    6.7606    2.6401    0.0000 O   0  0  0  0  0  0  0  0  0  0  0  0
    4.8705    0.7500    0.0000 N   0  0  0  0  0  0  0  0  0  0  0  0
    3.6570    1.6317    0.0000 C   0  0  0  0  0  0  0  0  0  0  0  0
    4.8705   -0.7500    0.0000 C   0  0  0  0  0  0  0  0  0  0  0  0
    3.9888   -1.9635    0.0000 N   0  0  0  0  0  0  0  0  0  0  0  0
    2.5000   -2.1464    0.0000 C   0  0  0  0  0  0  0  0  0  0  0  0
    4.8705   -3.1771    0.0000 C   0  0  0  0  0  0  0  0  0  0  0  0
    4.7659   -4.6734    0.0000 O   0  0  0  0  0  0  0  0  0  0  0  0
    6.2971   -2.7135    0.0000 N   0  0  0  0  0  0  0  0  0  0  0  0
    7.6090   -3.4407    0.0000 C   0  0  0  0  0  0  0  0  0  0  0  0
    6.2971   -1.2135    0.0000 C   0  0  0  0  0  0  0  0  0  0  0  0
    6.0660   -0.7110    0.0000 N   0  0  0  0  0  0  0  0  0  0  0  0
    7.3941   -3.7366    0.0000 C   0  0  0  0  0  0  0  0  0  0  0  0
    5.5194   -1.1798    0.0000 C   0  0  0  0  0  0  0  0  0  0  0  0
    5.3528   -0.4793    0.0000 N   0  0  0  0  0  0  0  0  0  0  0  0
    2.5000   -1.7807    0.0000 C   0  0  0  0  0  0  0  0  0  0  0  0
    4.4070   -4.6036    0.0000 Pd  0  0  0  0  0  4  0  0  0  0  0  0
    2.9397   -4.9155    0.0000 Cl  0  0  0  0  0  0  0  0  0  0  0  0
    5.4107   -5.7184    0.0000 Cl  0  0  0  0  0  0  0  0  0  0  0  0
  1  2  2  0
  2  3  1  0
  3  4  2  0
  4  5  1  0
  5  6  2  0
  4  7  1  0
  7  8  1  0
  8  9  2  0
  9 10  1  0
 10 11  2  0
 11 12  1  0
 12 13  2  0
  7 14  1  0
 14 15  2  0
 15 16  1  0
 16 17  2  0
 17 18  1  0
 18 19  2  0
 20 21  1  0
 21 22  1  0
 22 23  2  0
 22 24  1  0
 24 25  1  0
 24 26  1  0
 26 27  1  0
 27 28  1  0
 27 29  1  0
 29 30  2  0
 29 31  1  0
 31 32  1  0
 31 33  1  0
 33 34  1  0
 34 35  1  0
 34 36  1  0
 36 37  1  0
 37 38  1  0
 36 39  2  3
 39 40  1  0
 39 41  1  0
  6  1  1  0
 13  8  1  0
 19 14  1  0
 33 21  1  0
 33 26  1  0
 37 26  1  0
M  END
>  <DATASOURCE_REGID>  (2) 
UALIB-507

>  <SMILES_RDKIT_2019.09.2>  (2) 
C1=CC=C(P(C2=CC=CC=C2)C2=CC=CC=C2)C=C1.CN1C(=O)N(C)C23N(C)C(=O)N(C)C12N(C)C(=[Pd](Cl)Cl)N3C

>  <INCHI_1.05_RDKIT_2019.09.2>  (2) 
InChI=1S/C18H15P.C11H18N6O2.2ClH.Pd/c1-4-10-16(11-5-1)19(17-12-6-2-7-13-17)18-14-8-3-9-15-18;1-12-7-13(2)11-10(12,14(3)8(18)16(11)5)15(4)9(19)17(11)6;;;/h1-15H;1-6H3;2*1H;/q;;;;+2/p-2

>  <SUBSTANCE_SYNONYM>  (2) 
2,4,6,8,9,11-Hexamethyl-7,10-dioxo-2,4,6,8,9,11-hexaazatricyclo[3.3.3.0 (1,5)]-undec-3-ylidene triphenylphosphine palladium (II) dichloride

>  <SUBSTANCE_COMMENT>  (2) 
Iconaru, L.I. Fused polycyclic imidazoles. Ph.D. Thesis, The University of Alabama, 2009.

>  <SUBSTANCE_URL>  (2) 
https://ir.ua.edu/handle/123456789/683

>  <PUBCHEM_NONSTANDARDBOND>
7 39 5

$$$$
