
     RDKit          2D

 47 51  0  0  0  0  0  0  0  0999 V2000
    1.5000    0.0000    0.0000 C   0  0  0  0  0  0  0  0  0  0  0  0
    0.7500   -1.2990    0.0000 C   0  0  0  0  0  0  0  0  0  0  0  0
   -0.7500   -1.2990    0.0000 C   0  0  0  0  0  0  0  0  0  0  0  0
   -1.5000    0.0000    0.0000 C   0  0  0  0  0  0  0  0  0  0  0  0
   -0.7500    1.2990    0.0000 C   0  0  0  0  0  0  0  0  0  0  0  0
    0.7500    1.2990    0.0000 C   0  0  0  0  0  0  0  0  0  0  0  0
   -3.0000    0.0000    0.0000 P   0  0  0  0  0  0  0  0  0  0  0  0
   -3.7500    1.2990    0.0000 C   0  0  0  0  0  0  0  0  0  0  0  0
   -3.0000    2.5981    0.0000 C   0  0  0  0  0  0  0  0  0  0  0  0
   -3.7500    3.8971    0.0000 C   0  0  0  0  0  0  0  0  0  0  0  0
   -5.2500    3.8971    0.0000 C   0  0  0  0  0  0  0  0  0  0  0  0
   -6.0000    2.5981    0.0000 C   0  0  0  0  0  0  0  0  0  0  0  0
   -5.2500    1.2990    0.0000 C   0  0  0  0  0  0  0  0  0  0  0  0
   -3.7500   -1.2990    0.0000 C   0  0  0  0  0  0  0  0  0  0  0  0
   -5.2500   -1.2990    0.0000 C   0  0  0  0  0  0  0  0  0  0  0  0
   -6.0000   -2.5981    0.0000 C   0  0  0  0  0  0  0  0  0  0  0  0
   -5.2500   -3.8971    0.0000 C   0  0  0  0  0  0  0  0  0  0  0  0
   -3.7500   -3.8971    0.0000 C   0  0  0  0  0  0  0  0  0  0  0  0
   -3.0000   -2.5981    0.0000 C   0  0  0  0  0  0  0  0  0  0  0  0
    7.2409    6.3333    0.0000 F   0  0  0  0  0  0  0  0  0  0  0  0
    7.9451    5.0089    0.0000 C   0  0  0  0  0  0  0  0  0  0  0  0
    9.1738    5.8693    0.0000 F   0  0  0  0  0  0  0  0  0  0  0  0
    6.6207    4.3047    0.0000 F   0  0  0  0  0  0  0  0  0  0  0  0
    8.6493    3.6844    0.0000 C   0  0  0  0  0  0  0  0  0  0  0  0
    9.7641    2.6807    0.0000 C   0  0  0  0  0  0  0  0  0  0  0  0
    9.4522    1.2135    0.0000 N   0  0  0  0  0  0  0  0  0  0  0  0
   10.3339    0.0000    0.0000 C   0  0  0  0  0  0  0  0  0  0  0  0
    9.4522   -1.2135    0.0000 C   0  0  0  0  0  0  0  0  0  0  0  0
    8.0256   -0.7500    0.0000 N   0  0  0  0  0  0  0  0  0  0  0  0
    6.5973   -1.2299    0.0000 C   0  0  0  0  0  0  0  0  0  0  0  0
    5.3838   -0.3482    0.0000 C   0  0  0  0  0  0  0  0  0  0  0  0
    5.5406    1.1436    0.0000 O   0  0  0  0  0  0  0  0  0  0  0  0
    6.9109    1.7537    0.0000 Ni  0  0  0  0  0  4  0  0  0  0  0  0
    7.2228    3.2209    0.0000 O   0  0  0  0  0  0  0  0  0  0  0  0
    8.0256    0.7500    0.0000 C   0  0  0  0  0  0  0  0  0  0  0  0
    3.9419    0.0653    0.0000 C   0  0  0  0  0  0  0  0  0  0  0  0
    2.5000    0.4787    0.0000 F   0  0  0  0  0  0  0  0  0  0  0  0
    4.3553    1.5072    0.0000 F   0  0  0  0  0  0  0  0  0  0  0  0
    3.6304   -0.6685    0.0000 F   0  0  0  0  0  0  0  0  0  0  0  0
    4.7262   -1.6964    0.0000 C   0  0  0  0  0  0  0  0  0  0  0  0
    4.0687   -3.0446    0.0000 F   0  0  0  0  0  0  0  0  0  0  0  0
    3.9725   -1.4369    0.0000 F   0  0  0  0  0  0  0  0  0  0  0  0
    6.0744   -2.3539    0.0000 F   0  0  0  0  0  0  0  0  0  0  0  0
    9.8314    4.6079    0.0000 C   0  0  0  0  0  0  0  0  0  0  0  0
   11.0134    5.5314    0.0000 F   0  0  0  0  0  0  0  0  0  0  0  0
   10.7549    3.4259    0.0000 F   0  0  0  0  0  0  0  0  0  0  0  0
    9.0588    5.8937    0.0000 F   0  0  0  0  0  0  0  0  0  0  0  0
  1  2  2  0
  2  3  1  0
  3  4  2  0
  4  5  1  0
  5  6  2  0
  4  7  1  0
  7  8  1  0
  8  9  2  0
  9 10  1  0
 10 11  2  0
 11 12  1  0
 12 13  2  0
  7 14  1  0
 14 15  2  0
 15 16  1  0
 16 17  2  0
 17 18  1  0
 18 19  2  0
 20 21  1  0
 21 22  1  0
 21 23  1  0
 21 24  1  0
 24 25  1  0
 25 26  1  0
 26 27  1  0
 27 28  2  0
 28 29  1  0
 29 30  1  0
 30 31  1  0
 31 32  1  0
 32 33  1  0
 33 34  1  0
 33 35  2  0
 31 36  1  0
 36 37  1  0
 36 38  1  0
 36 39  1  0
 31 40  1  0
 40 41  1  0
 40 42  1  0
 40 43  1  0
 24 44  1  0
 44 45  1  0
 44 46  1  0
 44 47  1  0
  6  1  1  0
 13  8  1  0
 19 14  1  0
 34 24  1  0
 35 26  1  0
 35 29  1  0
M  END
>  <DATASOURCE_REGID>  (1) 
UALIB-1747

>  <SMILES_RDKIT_2019.09.2>  (1) 
C1=CC=C(P(C2=CC=CC=C2)C2=CC=CC=C2)C=C1.FC(F)(F)C1(C(F)(F)F)CN2C=CN3CC(C(F)(F)F)(C(F)(F)F)O[Ni](=C23)O1

>  <INCHI_1.05_RDKIT_2019.09.2>  (1) 
InChI=1S/C18H15P.C11H6F12N2O2.Ni/c1-4-10-16(11-5-1)19(17-12-6-2-7-13-17)18-14-8-3-9-15-18;12-8(13,14)6(26,9(15,16)17)3-24-1-2-25(5-24)4-7(27,10(18,19)20)11(21,22)23;/h1-15H;1-2H,3-4H2;/q;-2;+2

>  <SUBSTANCE_COMMENT>  (1) 
Gurau, G. New developments in carbene and nitrene chemistry. Ph.D. Thesis, The University of Alabama, 2007.

>  <SUBSTANCE_URL>  (1) 
http://library.ua.edu/vwebv/holdingsInfo?bibId=2195404

>  <PUBCHEM_NONSTANDARDBOND>
7 33 5

$$$$

     RDKit          2D

 47 51  0  0  0  0  0  0  0  0999 V2000
    1.5000    0.0000    0.0000 C   0  0  0  0  0  0  0  0  0  0  0  0
    0.7500   -1.2990    0.0000 C   0  0  0  0  0  0  0  0  0  0  0  0
   -0.7500   -1.2990    0.0000 C   0  0  0  0  0  0  0  0  0  0  0  0
   -1.5000    0.0000    0.0000 C   0  0  0  0  0  0  0  0  0  0  0  0
   -0.7500    1.2990    0.0000 C   0  0  0  0  0  0  0  0  0  0  0  0
    0.7500    1.2990    0.0000 C   0  0  0  0  0  0  0  0  0  0  0  0
   -3.0000    0.0000    0.0000 P   0  0  0  0  0  0  0  0  0  0  0  0
   -3.7500    1.2990    0.0000 C   0  0  0  0  0  0  0  0  0  0  0  0
   -3.0000    2.5981    0.0000 C   0  0  0  0  0  0  0  0  0  0  0  0
   -3.7500    3.8971    0.0000 C   0  0  0  0  0  0  0  0  0  0  0  0
   -5.2500    3.8971    0.0000 C   0  0  0  0  0  0  0  0  0  0  0  0
   -6.0000    2.5981    0.0000 C   0  0  0  0  0  0  0  0  0  0  0  0
   -5.2500    1.2990    0.0000 C   0  0  0  0  0  0  0  0  0  0  0  0
   -3.7500   -1.2990    0.0000 C   0  0  0  0  0  0  0  0  0  0  0  0
   -5.2500   -1.2990    0.0000 C   0  0  0  0  0  0  0  0  0  0  0  0
   -6.0000   -2.5981    0.0000 C   0  0  0  0  0  0  0  0  0  0  0  0
   -5.2500   -3.8971    0.0000 C   0  0  0  0  0  0  0  0  0  0  0  0
   -3.7500   -3.8971    0.0000 C   0  0  0  0  0  0  0  0  0  0  0  0
   -3.0000   -2.5981    0.0000 C   0  0  0  0  0  0  0  0  0  0  0  0
    7.2409    6.3333    0.0000 F   0  0  0  0  0  0  0  0  0  0  0  0
    7.9451    5.0089    0.0000 C   0  0  0  0  0  0  0  0  0  0  0  0
    9.1738    5.8693    0.0000 F   0  0  0  0  0  0  0  0  0  0  0  0
    6.6207    4.3047    0.0000 F   0  0  0  0  0  0  0  0  0  0  0  0
    8.6493    3.6844    0.0000 C   0  0  0  0  0  0  0  0  0  0  0  0
    9.7641    2.6807    0.0000 C   0  0  0  0  0  0  0  0  0  0  0  0
    9.4522    1.2135    0.0000 N   0  0  0  0  0  0  0  0  0  0  0  0
   10.3339    0.0000    0.0000 C   0  0  0  0  0  0  0  0  0  0  0  0
    9.4522   -1.2135    0.0000 C   0  0  0  0  0  0  0  0  0  0  0  0
    8.0256   -0.7500    0.0000 N   0  0  0  0  0  0  0  0  0  0  0  0
    6.5973   -1.2299    0.0000 C   0  0  0  0  0  0  0  0  0  0  0  0
    5.3838   -0.3482    0.0000 C   0  0  0  0  0  0  0  0  0  0  0  0
    5.5406    1.1436    0.0000 O   0  0  0  0  0  0  0  0  0  0  0  0
    6.9109    1.7537    0.0000 Pd  0  0  0  0  0  4  0  0  0  0  0  0
    7.2228    3.2209    0.0000 O   0  0  0  0  0  0  0  0  0  0  0  0
    8.0256    0.7500    0.0000 C   0  0  0  0  0  0  0  0  0  0  0  0
    3.9419    0.0653    0.0000 C   0  0  0  0  0  0  0  0  0  0  0  0
    2.5000    0.4787    0.0000 F   0  0  0  0  0  0  0  0  0  0  0  0
    4.3553    1.5072    0.0000 F   0  0  0  0  0  0  0  0  0  0  0  0
    3.6304   -0.6685    0.0000 F   0  0  0  0  0  0  0  0  0  0  0  0
    4.7262   -1.6964    0.0000 C   0  0  0  0  0  0  0  0  0  0  0  0
    4.0687   -3.0446    0.0000 F   0  0  0  0  0  0  0  0  0  0  0  0
    3.9725   -1.4369    0.0000 F   0  0  0  0  0  0  0  0  0  0  0  0
    6.0744   -2.3539    0.0000 F   0  0  0  0  0  0  0  0  0  0  0  0
    9.8314    4.6079    0.0000 C   0  0  0  0  0  0  0  0  0  0  0  0
   11.0134    5.5314    0.0000 F   0  0  0  0  0  0  0  0  0  0  0  0
   10.7549    3.4259    0.0000 F   0  0  0  0  0  0  0  0  0  0  0  0
    9.0588    5.8937    0.0000 F   0  0  0  0  0  0  0  0  0  0  0  0
  1  2  2  0
  2  3  1  0
  3  4  2  0
  4  5  1  0
  5  6  2  0
  4  7  1  0
  7  8  1  0
  8  9  2  0
  9 10  1  0
 10 11  2  0
 11 12  1  0
 12 13  2  0
  7 14  1  0
 14 15  2  0
 15 16  1  0
 16 17  2  0
 17 18  1  0
 18 19  2  0
 20 21  1  0
 21 22  1  0
 21 23  1  0
 21 24  1  0
 24 25  1  0
 25 26  1  0
 26 27  1  0
 27 28  2  0
 28 29  1  0
 29 30  1  0
 30 31  1  0
 31 32  1  0
 32 33  1  0
 33 34  1  0
 33 35  2  0
 31 36  1  0
 36 37  1  0
 36 38  1  0
 36 39  1  0
 31 40  1  0
 40 41  1  0
 40 42  1  0
 40 43  1  0
 24 44  1  0
 44 45  1  0
 44 46  1  0
 44 47  1  0
  6  1  1  0
 13  8  1  0
 19 14  1  0
 34 24  1  0
 35 26  1  0
 35 29  1  0
M  END
>  <DATASOURCE_REGID>  (2) 
UALIB-1748

>  <SMILES_RDKIT_2019.09.2>  (2) 
C1=CC=C(P(C2=CC=CC=C2)C2=CC=CC=C2)C=C1.FC(F)(F)C1(C(F)(F)F)CN2C=CN3CC(C(F)(F)F)(C(F)(F)F)O[Pd](=C23)O1

>  <INCHI_1.05_RDKIT_2019.09.2>  (2) 
InChI=1S/C18H15P.C11H6F12N2O2.Pd/c1-4-10-16(11-5-1)19(17-12-6-2-7-13-17)18-14-8-3-9-15-18;12-8(13,14)6(26,9(15,16)17)3-24-1-2-25(5-24)4-7(27,10(18,19)20)11(21,22)23;/h1-15H;1-2H,3-4H2;/q;-2;+2

>  <SUBSTANCE_COMMENT>  (2) 
Gurau, G. New developments in carbene and nitrene chemistry. Ph.D. Thesis, The University of Alabama, 2007.

>  <SUBSTANCE_URL>  (2) 
http://library.ua.edu/vwebv/holdingsInfo?bibId=2195404

>  <PUBCHEM_NONSTANDARDBOND>
7 33 5

$$$$

     RDKit          2D

 47 51  0  0  0  0  0  0  0  0999 V2000
    1.5000    0.0000    0.0000 C   0  0  0  0  0  0  0  0  0  0  0  0
    0.7500   -1.2990    0.0000 C   0  0  0  0  0  0  0  0  0  0  0  0
   -0.7500   -1.2990    0.0000 C   0  0  0  0  0  0  0  0  0  0  0  0
   -1.5000    0.0000    0.0000 C   0  0  0  0  0  0  0  0  0  0  0  0
   -0.7500    1.2990    0.0000 C   0  0  0  0  0  0  0  0  0  0  0  0
    0.7500    1.2990    0.0000 C   0  0  0  0  0  0  0  0  0  0  0  0
   -3.0000    0.0000    0.0000 P   0  0  0  0  0  0  0  0  0  0  0  0
   -3.7500    1.2990    0.0000 C   0  0  0  0  0  0  0  0  0  0  0  0
   -3.0000    2.5981    0.0000 C   0  0  0  0  0  0  0  0  0  0  0  0
   -3.7500    3.8971    0.0000 C   0  0  0  0  0  0  0  0  0  0  0  0
   -5.2500    3.8971    0.0000 C   0  0  0  0  0  0  0  0  0  0  0  0
   -6.0000    2.5981    0.0000 C   0  0  0  0  0  0  0  0  0  0  0  0
   -5.2500    1.2990    0.0000 C   0  0  0  0  0  0  0  0  0  0  0  0
   -3.7500   -1.2990    0.0000 C   0  0  0  0  0  0  0  0  0  0  0  0
   -5.2500   -1.2990    0.0000 C   0  0  0  0  0  0  0  0  0  0  0  0
   -6.0000   -2.5981    0.0000 C   0  0  0  0  0  0  0  0  0  0  0  0
   -5.2500   -3.8971    0.0000 C   0  0  0  0  0  0  0  0  0  0  0  0
   -3.7500   -3.8971    0.0000 C   0  0  0  0  0  0  0  0  0  0  0  0
   -3.0000   -2.5981    0.0000 C   0  0  0  0  0  0  0  0  0  0  0  0
    7.2409    6.3333    0.0000 F   0  0  0  0  0  0  0  0  0  0  0  0
    7.9451    5.0089    0.0000 C   0  0  0  0  0  0  0  0  0  0  0  0
    9.1738    5.8693    0.0000 F   0  0  0  0  0  0  0  0  0  0  0  0
    6.6207    4.3047    0.0000 F   0  0  0  0  0  0  0  0  0  0  0  0
    8.6493    3.6844    0.0000 C   0  0  0  0  0  0  0  0  0  0  0  0
    9.7641    2.6807    0.0000 C   0  0  0  0  0  0  0  0  0  0  0  0
    9.4522    1.2135    0.0000 N   0  0  0  0  0  0  0  0  0  0  0  0
   10.3339    0.0000    0.0000 C   0  0  0  0  0  0  0  0  0  0  0  0
    9.4522   -1.2135    0.0000 C   0  0  0  0  0  0  0  0  0  0  0  0
    8.0256   -0.7500    0.0000 N   0  0  0  0  0  0  0  0  0  0  0  0
    6.5973   -1.2299    0.0000 C   0  0  0  0  0  0  0  0  0  0  0  0
    5.3838   -0.3482    0.0000 C   0  0  0  0  0  0  0  0  0  0  0  0
    5.5406    1.1436    0.0000 O   0  0  0  0  0  0  0  0  0  0  0  0
    6.9109    1.7537    0.0000 Pt  0  0  0  0  0  4  0  0  0  0  0  0
    7.2228    3.2209    0.0000 O   0  0  0  0  0  0  0  0  0  0  0  0
    8.0256    0.7500    0.0000 C   0  0  0  0  0  0  0  0  0  0  0  0
    3.9419    0.0653    0.0000 C   0  0  0  0  0  0  0  0  0  0  0  0
    2.5000    0.4787    0.0000 F   0  0  0  0  0  0  0  0  0  0  0  0
    4.3553    1.5072    0.0000 F   0  0  0  0  0  0  0  0  0  0  0  0
    3.6304   -0.6685    0.0000 F   0  0  0  0  0  0  0  0  0  0  0  0
    4.7262   -1.6964    0.0000 C   0  0  0  0  0  0  0  0  0  0  0  0
    4.0687   -3.0446    0.0000 F   0  0  0  0  0  0  0  0  0  0  0  0
    3.9725   -1.4369    0.0000 F   0  0  0  0  0  0  0  0  0  0  0  0
    6.0744   -2.3539    0.0000 F   0  0  0  0  0  0  0  0  0  0  0  0
    9.8314    4.6079    0.0000 C   0  0  0  0  0  0  0  0  0  0  0  0
   11.0134    5.5314    0.0000 F   0  0  0  0  0  0  0  0  0  0  0  0
   10.7549    3.4259    0.0000 F   0  0  0  0  0  0  0  0  0  0  0  0
    9.0588    5.8937    0.0000 F   0  0  0  0  0  0  0  0  0  0  0  0
  1  2  2  0
  2  3  1  0
  3  4  2  0
  4  5  1  0
  5  6  2  0
  4  7  1  0
  7  8  1  0
  8  9  2  0
  9 10  1  0
 10 11  2  0
 11 12  1  0
 12 13  2  0
  7 14  1  0
 14 15  2  0
 15 16  1  0
 16 17  2  0
 17 18  1  0
 18 19  2  0
 20 21  1  0
 21 22  1  0
 21 23  1  0
 21 24  1  0
 24 25  1  0
 25 26  1  0
 26 27  1  0
 27 28  2  0
 28 29  1  0
 29 30  1  0
 30 31  1  0
 31 32  1  0
 32 33  1  0
 33 34  1  0
 33 35  2  0
 31 36  1  0
 36 37  1  0
 36 38  1  0
 36 39  1  0
 31 40  1  0
 40 41  1  0
 40 42  1  0
 40 43  1  0
 24 44  1  0
 44 45  1  0
 44 46  1  0
 44 47  1  0
  6  1  1  0
 13  8  1  0
 19 14  1  0
 34 24  1  0
 35 26  1  0
 35 29  1  0
M  END
>  <DATASOURCE_REGID>  (3) 
UALIB-1749

>  <SMILES_RDKIT_2019.09.2>  (3) 
C1=CC=C(P(C2=CC=CC=C2)C2=CC=CC=C2)C=C1.FC(F)(F)C1(C(F)(F)F)CN2C=CN3CC(C(F)(F)F)(C(F)(F)F)O[Pt](=C23)O1

>  <INCHI_1.05_RDKIT_2019.09.2>  (3) 
InChI=1S/C18H15P.C11H6F12N2O2.Pt/c1-4-10-16(11-5-1)19(17-12-6-2-7-13-17)18-14-8-3-9-15-18;12-8(13,14)6(26,9(15,16)17)3-24-1-2-25(5-24)4-7(27,10(18,19)20)11(21,22)23;/h1-15H;1-2H,3-4H2;/q;-2;+2

>  <SUBSTANCE_COMMENT>  (3) 
Gurau, G. New developments in carbene and nitrene chemistry. Ph.D. Thesis, The University of Alabama, 2007.

>  <SUBSTANCE_URL>  (3) 
http://library.ua.edu/vwebv/holdingsInfo?bibId=2195404

>  <PUBCHEM_NONSTANDARDBOND>
7 33 5

$$$$
