
     RDKit          2D

 19 16  0  0  0  0  0  0  0  0999 V2000
    3.5981    0.0000    0.0000 Cl  0  0  0  0  0  0  0  0  0  0  0  0
    4.8971    0.7500    0.0000 Pd  0  0  0  0  0  1  0  0  0  0  0  0
    0.0000    0.0000    0.0000 C   0  0  0  0  0  3  0  0  0  0  0  0
    1.2990    0.7500    0.0000 C   0  0  0  0  0  0  0  0  0  0  0  0
    2.5981   -0.0000    0.0000 C   0  0  0  0  0  0  0  0  0  0  0  0
    2.5417    3.5765    0.0000 C   0  0  0  0  0  0  0  0  0  0  0  0
    1.2990    3.0490    0.0000 C   0  0  0  0  0  0  0  0  0  0  0  0
    0.0000    2.2990    0.0000 C   0  0  0  0  0  0  0  0  0  0  0  0
    2.0490    1.7500    0.0000 C   0  0  0  0  0  0  0  0  0  0  0  0
    0.5490    4.3481    0.0000 C   0  0  0  0  0  0  0  0  0  0  0  0
    1.2990    5.6471    0.0000 P   0  0  0  0  0  0  0  0  0  0  0  0
    0.5490    6.9462    0.0000 C   0  0  0  0  0  0  0  0  0  0  0  0
    1.8481    7.6962    0.0000 C   0  0  0  0  0  0  0  0  0  0  0  0
   -0.7500    6.1962    0.0000 C   0  0  0  0  0  0  0  0  0  0  0  0
   -0.2010    8.2452    0.0000 C   0  0  0  0  0  0  0  0  0  0  0  0
    2.7990    5.6471    0.0000 C   0  0  0  0  0  0  0  0  0  0  0  0
    2.7990    7.1471    0.0000 C   0  0  0  0  0  0  0  0  0  0  0  0
    2.9636    4.3072    0.0000 C   0  0  0  0  0  0  0  0  0  0  0  0
    4.2990    5.6471    0.0000 C   0  0  0  0  0  0  0  0  0  0  0  0
  1  2  1  0
  3  4  1  0
  4  5  2  0
  6  7  1  0
  7  8  1  0
  7  9  1  0
  7 10  1  0
 10 11  1  0
 11 12  1  0
 12 13  1  0
 12 14  1  0
 12 15  1  0
 11 16  1  0
 16 17  1  0
 16 18  1  0
 16 19  1  0
M  CHG  1   3  -1
M  END
>  <DATASOURCE_REGID>  (1) 
UALIB-2100

>  <SMILES_RDKIT_2019.09.2>  (1) 
C=C[CH2-].CC(C)(C)CP(C(C)(C)C)C(C)(C)C.Cl[Pd]

>  <INCHI_1.05_RDKIT_2019.09.2>  (1) 
InChI=1S/C13H29P.C3H5.ClH.Pd/c1-11(2,3)10-14(12(4,5)6)13(7,8)9;1-3-2;;/h10H2,1-9H3;3H,1-2H2;1H;/q;-1;;+1/p-1

>  <SUBSTANCE_COMMENT>  (1) 
Hill, L.L. Investigations of cross coupling reactions: synthesis and scope of new neopentyl phosphine ligands and pre-formed palladium catalysts. Ph.D. Thesis, The University of Alabama, 2009.

>  <SUBSTANCE_URL>  (1) 
http://library.ua.edu/vwebv/holdingsInfo?bibId=2765001

>  <PUBCHEM_NONSTANDARDBOND>
11 2 5
3 2 5
4 2 5
5 2 5

$$$$
